REMARK  10 active torsions:
REMARK  status: ('A' for Active; 'I' for Inactive)
REMARK    1  A    between atoms: C4_4  and  O12_56 
REMARK    2  A    between atoms: C6_6  and  O11_54 
REMARK    3  A    between atoms: C9_9  and  O10_52 
REMARK    4  A    between atoms: C18_24  and  C32_40 
REMARK    5  A    between atoms: C20_26  and  O7_38 
REMARK    6  A    between atoms: C23_30  and  C28_35 
REMARK    7  A    between atoms: C28_35  and  C29_36 
REMARK    8  A    between atoms: C33_41  and  C34_42 
REMARK    9  A    between atoms: C37_45  and  O9_50 
REMARK   10  A    between atoms: C38_46  and  O8_48 
ROOT
HETATM    1  C1  UNL     1      -3.075   1.232   2.759  1.00  0.00     0.010 C 
HETATM    2  C2  UNL     1      -2.062   0.135   3.148  1.00  0.00    -0.012 C 
HETATM    3  C3  UNL     1      -0.609   0.557   2.821  1.00  0.00     0.039 C 
HETATM    4  C4  UNL     1      -0.014   1.689   3.705  1.00  0.00     0.152 C 
HETATM    5  C5  UNL     1       1.505   1.906   3.395  1.00  0.00     0.183 C 
HETATM    6  C6  UNL     1       2.218   2.979   4.284  1.00  0.00     0.153 C 
HETATM    7  C7  UNL     1       3.138   3.868   3.429  1.00  0.00     0.044 C 
HETATM    8  C8  UNL     1       3.949   3.015   2.438  1.00  0.00     0.055 C 
HETATM    9  C9  UNL     1       3.001   2.102   1.567  1.00  0.00     0.238 C 
HETATM   10  O1  UNL     1       1.654   2.182   2.015  1.00  0.00    -0.338 OA
HETATM   11  C10 UNL     1       2.952   2.496   0.094  1.00  0.00     0.278 C 
HETATM   12  O2  UNL     1       3.610   1.843  -0.760  1.00  0.00    -0.281 OA
HETATM   13  C11 UNL     1       2.041   3.555  -0.378  1.00  0.00     0.296 C 
HETATM   14  O3  UNL     1       1.706   4.493   0.390  1.00  0.00    -0.264 OA
HETATM   15  N1  UNL     1       1.412   3.437  -1.662  1.00  0.00    -0.331 N 
HETATM   16  C12 UNL     1       1.767   4.415  -2.694  1.00  0.00     0.127 C 
HETATM   17  C13 UNL     1       0.738   5.544  -2.700  1.00  0.00     0.020 C 
HETATM   18  C14 UNL     1      -0.682   4.984  -2.869  1.00  0.00     0.004 C 
HETATM   19  C15 UNL     1      -1.005   3.900  -1.824  1.00  0.00     0.035 C 
HETATM   20  C16 UNL     1       0.083   2.805  -1.725  1.00  0.00     0.187 C 
HETATM   21  C17 UNL     1       0.023   1.799  -2.855  1.00  0.00     0.282 C 
HETATM   22  O4  UNL     1      -0.116   2.188  -4.046  1.00  0.00    -0.263 OA
HETATM   23  O5  UNL     1       0.250   0.438  -2.624  1.00  0.00    -0.309 OA
HETATM   24  C18 UNL     1      -0.581  -0.414  -1.828  1.00  0.00     0.166 C 
HETATM   25  C19 UNL     1      -1.684  -1.088  -2.720  1.00  0.00     0.044 C 
HETATM   26  C20 UNL     1      -3.033  -0.302  -2.853  1.00  0.00     0.131 C 
HETATM   27  C21 UNL     1      -4.223  -0.937  -2.074  1.00  0.00     0.111 C 
HETATM   28  C22 UNL     1      -4.103  -0.991  -0.563  1.00  0.00     0.137 C 
HETATM   29  O6  UNL     1      -4.063   0.063   0.057  1.00  0.00    -0.297 OA
HETATM   30  C23 UNL     1      -4.293  -2.304   0.192  1.00  0.00     0.081 C 
HETATM   31  C24 UNL     1      -4.623  -2.120   1.671  1.00  0.00    -0.012 C 
HETATM   32  C25 UNL     1      -3.780  -1.726   2.660  1.00  0.00    -0.086 C 
HETATM   33  C26 UNL     1      -2.372  -1.200   2.414  1.00  0.00     0.037 C 
HETATM   34  C27 UNL     1      -4.254  -1.892   4.085  1.00  0.00     0.043 C 
HETATM   35  C31 UNL     1      -1.132  -1.440  -4.119  1.00  0.00     0.015 C 
HETATM   36  C42 UNL     1       4.926   3.894   1.637  1.00  0.00     0.016 C 
ENDROOT
BRANCH  24  37
HETATM   37  C32 UNL     1       0.347  -1.373  -1.074  1.00  0.00    -0.058 C 
HETATM   38  C33 UNL     1       0.442  -2.706  -1.334  1.00  0.00    -0.017 C 
HETATM   39  C41 UNL     1       1.241  -0.749  -0.031  1.00  0.00     0.046 C 
BRANCH  38  40
HETATM   40  C34 UNL     1       1.400  -3.651  -0.624  1.00  0.00     0.011 C 
HETATM   41  C35 UNL     1       0.803  -5.078  -0.556  1.00  0.00     0.011 C 
HETATM   42  C36 UNL     1       1.904  -6.120  -0.357  1.00  0.00     0.035 C 
HETATM   43  C37 UNL     1       2.852  -6.158  -1.578  1.00  0.00     0.147 C 
HETATM   44  C38 UNL     1       3.040  -4.773  -2.274  1.00  0.00     0.150 C 
HETATM   45  C39 UNL     1       2.802  -3.616  -1.288  1.00  0.00     0.043 C 
BRANCH  43  46
HETATM   46  O9  UNL     1       4.093  -6.707  -1.210  1.00  0.00    -0.393 OA
HETATM   47  H56 UNL     1       4.549  -6.048  -0.625  1.00  0.00     0.210 HD
ENDBRANCH  43  46
BRANCH  44  48
HETATM   48  O8  UNL     1       2.126  -4.638  -3.354  1.00  0.00    -0.388 OA
HETATM   49  C40 UNL     1       2.726  -5.043  -4.566  1.00  0.00     0.202 C 
ENDBRANCH  44  48
ENDBRANCH  38  40
ENDBRANCH  24  37
BRANCH  26  50
HETATM   50  O7  UNL     1      -2.899   1.080  -2.627  1.00  0.00    -0.395 OA
HETATM   51  H39 UNL     1      -2.899   1.238  -1.649  1.00  0.00     0.210 HD
ENDBRANCH  26  50
BRANCH  30  52
HETATM   52  C28 UNL     1      -3.140  -3.326  -0.001  1.00  0.00     0.042 C 
BRANCH  52  53
HETATM   53  C29 UNL     1      -3.343  -4.228  -1.194  1.00  0.00    -0.036 C 
HETATM   54  C30 UNL     1      -4.338  -5.123  -1.244  1.00  0.00     0.007 C 
ENDBRANCH  52  53
ENDBRANCH  30  52
BRANCH   9  55
HETATM   55  O10 UNL     1       3.429   0.759   1.663  1.00  0.00    -0.359 OA
HETATM   56  H60 UNL     1       4.359   0.706   1.320  1.00  0.00     0.213 HD
ENDBRANCH   9  55
BRANCH   6  57
HETATM   57  O11 UNL     1       1.284   3.807   4.956  1.00  0.00    -0.388 OA
HETATM   58  C43 UNL     1       1.670   4.023   6.295  1.00  0.00     0.202 C 
ENDBRANCH   6  57
BRANCH   4  59
HETATM   59  O12 UNL     1      -0.807   2.874   3.703  1.00  0.00    -0.388 OA
HETATM   60  C44 UNL     1      -0.739   3.614   2.500  1.00  0.00     0.202 C 
ENDBRANCH   4  59
TORSDOF 10
