REMARK  3 active torsions:
REMARK  status: ('A' for Active; 'I' for Inactive)
REMARK    1  A    between atoms: N5_6  and  C10_11 
REMARK    2  A    between atoms: N5_6  and  C12_12 
REMARK    3  A    between atoms: C6_7  and  C8_9 
ROOT
HETATM    1  C8  855 A 857      14.743  65.859   5.924  1.00 16.75     0.182 A 
HETATM    2  N9  855 A 857      15.662  66.579   5.254  1.00 17.36    -0.206 NA
HETATM    3  C10 855 A 857      16.474  67.416   5.931  1.00 17.21     0.166 A 
HETATM    4  C18 855 A 857      16.401  67.566   7.336  1.00 18.20     0.054 A 
HETATM    5  C19 855 A 857      17.216  68.435   8.152  1.00 19.21     0.005 A 
HETATM    6  C20 855 A 857      17.037  68.486   9.557  1.00 19.18     0.000 A 
HETATM    7  C21 855 A 857      16.050  67.678  10.165  1.00 20.18     0.002 A 
HETATM    8  C22 855 A 857      15.237  66.821   9.367  1.00 19.67     0.019 A 
HETATM    9  C23 855 A 857      15.392  66.751   7.965  1.00 18.13     0.086 A 
HETATM   10  N24 855 A 857      14.580  65.915   7.272  1.00 18.00    -0.225 NA
ENDROOT
BRANCH   1  11
HETATM   11  C6  855 A 857      13.872  64.995   5.122  1.00 16.58     0.117 A 
HETATM   12  C5  855 A 857      14.305  64.371   3.922  1.00 16.64     0.022 A 
HETATM   13  C4  855 A 857      13.377  63.574   3.204  1.00 16.54     0.003 A 
HETATM   14  C3  855 A 857      12.050  63.421   3.683  1.00 16.34     0.015 A 
HETATM   15  C2  855 A 857      11.688  64.067   4.880  1.00 16.52     0.059 A 
HETATM   16  C1  855 A 857      10.302  63.945   5.427  1.00 16.51     0.052 C 
HETATM   17  N7  855 A 857      12.574  64.838   5.586  1.00 16.48    -0.247 NA
ENDBRANCH   1  11
BRANCH   3  18
HETATM   18  N5  855 A 857      17.395  68.128   5.153  1.00 17.20    -0.227 NA
BRANCH  18  19
HETATM   19  C12 855 A 857      17.378  68.546   3.810  1.00 16.96     0.086 A 
HETATM   20  C13 855 A 857      18.540  69.123   3.250  1.00 17.71     0.040 A 
HETATM   21  C14 855 A 857      18.514  69.538   1.910  1.00 17.63     0.101 A 
HETATM   22  N15 855 A 857      17.404  69.414   1.099  1.00 18.09    -0.242 NA
HETATM   23  C16 855 A 857      16.275  68.850   1.647  1.00 16.96     0.101 A 
HETATM   24  C17 855 A 857      16.213  68.407   2.978  1.00 17.67     0.040 A 
ENDBRANCH  18  19
ENDBRANCH   3  18
TORSDOF 3
